[{000214A0-0000-0000-C000-000000000046}]
Prop3=19,11
[InternetShortcut]
IDList=
URL=https://content.oss.deltares.nl/delft3d4/Delft3D-QUICKPLOT_User_Manual.pdf
